Circuit: * D:\Eigene Dateien\Bastelprojekte\EFM8_USB_Debug_Adapter\sim\Ideal_Diode\Ideal_Diode.asc

WARNING: Specified period is not longer than the sum of Trise, Tfall, and Ton for v2.  Increasing period to 0.3
Direct Newton iteration for .op point succeeded.

Date: Sun Oct 23 17:52:14 2022
Total elapsed time: 0.219 seconds.

tnom = 27
temp = 27
method = modified trap
totiter = 2103
traniter = 2087
tranpoints = 1043
accept = 1042
rejected = 1
matrix size = 18
fillins = 6
solver = Normal
Matrix Compiler1: 1.47 KB object code size  0.4/0.2/[0.1]
Matrix Compiler2: off  [0.1]/0.2/0.2

